248
(10,2) nanotube structure generated by TubeASP -- Roberto G. A. Veiga, Universidade Federal de Uberlandia, Brazil
C          4.3589305          0.0000000          0.0000000
C          4.1590267          1.3049031          0.3664516
C          -4.3589305          -0.0000000          0.0000000
C          -4.1590267          -1.3049031          0.3664516
C          -3.6991813          2.3057174          0.3825593
C          -4.2197809          1.0925770          0.7490109
C          3.6991814          -2.3057174          0.3825593
C          4.2197809          -1.0925770          0.7490109
C          1.9196475          -3.9134676          0.7651186
C          3.0031589          -3.1593214          1.1315702
C          -1.9196475          3.9134676          0.7651186
C          -3.0031589          3.1593214          1.1315702
C          0.4409857          4.3365663          1.1476779
C          -0.8774463          4.2697029          1.5141295
C          -0.4409857          -4.3365663          1.1476779
C          0.8774463          -4.2697029          1.5141295
C          -2.6681274          -3.4469365          1.5302372
C          -1.5138795          -4.0875964          1.8966888
C          2.6681274          3.4469365          1.5302372
C          1.5138795          4.0875964          1.8966888
C          4.0875964          1.5138795          1.9127965
C          3.4469365          2.6681275          2.2792481
C          -4.0875964          -1.5138795          1.9127965
C          -3.4469365          -2.6681275          2.2792481
C          -4.2697030          0.8774463          2.2953558
C          -4.3365662          -0.4409857          2.6618074
C          4.2697030          -0.8774463          2.2953558
C          4.3365662          0.4409857          2.6618074
C          3.1593214          -3.0031589          2.6779151
C          3.9134676          -1.9196475          3.0443667
C          -3.1593214          3.0031589          2.6779151
C          -3.9134676          1.9196475          3.0443667
C          -1.0925770          4.2197809          3.0604743
C          -2.3057174          3.6991813          3.4269260
C          1.0925770          -4.2197809          3.0604743
C          2.3057174          -3.6991813          3.4269260
C          -1.3049030          -4.1590267          3.4430336
C          0.0000000          -4.3589305          3.8094853
C          1.3049030          4.1590267          3.4430336
C          -0.0000000          4.3589305          3.8094853
C          3.3073739          2.8392874          3.8255929
C          2.3057174          3.6991814          4.1920445
C          -3.3073739          -2.8392874          3.8255929
C          -2.3057174          -3.6991814          4.1920445
C          -4.3086647          -0.6600632          4.2081522
C          -3.9134676          -1.9196475          4.5746038
C          4.3086647          0.6600632          4.2081522
C          3.9134676          1.9196475          4.5746038
C          4.0056733          -1.7189698          4.5907115
C          4.3365663          -0.4409857          4.9571631
C          -4.0056733          1.7189698          4.5907115
C          -4.3365663          0.4409857          4.9571631
C          -2.4901185          3.5776508          4.9732708
C          -3.4469365          2.6681274          5.3397224
C          2.4901185          -3.5776508          4.9732708
C          3.4469365          -2.6681274          5.3397224
C          0.2207762          -4.3533359          5.3558301
C          1.5138795          -4.0875964          5.7222817
C          -0.2207762          4.3533359          5.3558301
C          -1.5138795          4.0875964          5.7222817
C          2.1153975          3.8112162          5.7383894
C          0.8774462          4.2697030          6.1048410
C          -2.1153975          -3.8112162          5.7383894
C          -0.8774462          -4.2697030          6.1048410
C          -3.8112161          -2.1153976          6.1209487
C          -3.0031589          -3.1593214          6.4874003
C          3.8112161          2.1153976          6.1209487
C          3.0031589          3.1593214          6.4874003
C          4.3533359          -0.2207762          6.5035080
C          4.2197809          1.0925770          6.8699596
C          -4.3533359          0.2207762          6.5035080
C          -4.2197809          -1.0925770          6.8699596
C          -3.5776508          2.4901184          6.8860673
C          -4.1590267          1.3049030          7.2525189
C          3.5776508          -2.4901184          6.8860673
C          4.1590267          -1.3049030          7.2525189
C          1.7189698          -4.0056732          7.2686266
C          2.8392874          -3.3073739          7.6350782
C          -1.7189698          4.0056732          7.2686266
C          -2.8392874          3.3073739          7.6350782
C          0.6600631          4.3086647          7.6511859
C          -0.6600632          4.3086647          8.0176375
C          -0.6600631          -4.3086647          7.6511859
C          0.6600632          -4.3086647          8.0176375
C          -2.8392874          -3.3073740          8.0337452
C          -1.7189697          -4.0056733          8.4001968
C          2.8392874          3.3073740          8.0337452
C          1.7189697          4.0056733          8.4001968
C          4.1590267          1.3049031          8.4163045
C          3.5776508          2.4901185          8.7827561
C          -4.1590267          -1.3049031          8.4163045
C          -3.5776508          -2.4901185          8.7827561
C          -4.2197809          1.0925769          8.7988637
C          -4.3533359          -0.2207762          9.1653154
C          4.2197809          -1.0925769          8.7988637
C          4.3533359          0.2207762          9.1653154
C          3.0031590          -3.1593214          9.1814230
C          3.8112162          -2.1153975          9.5478747
C          -3.0031590          3.1593214          9.1814230
C          -3.8112162          2.1153975          9.5478747
C          -0.8774463          4.2697029          9.5639823
C          -2.1153976          3.8112161          9.9304339
C          0.8774463          -4.2697029          9.5639823
C          2.1153976          -3.8112161          9.9304339
C          -1.5138794          -4.0875964          9.9465416
C          -0.2207762          -4.3533359          10.3129932
C          1.5138794          4.0875964          9.9465416
C          0.2207762          4.3533359          10.3129932
C          3.4469365          2.6681275          10.3291009
C          2.4901184          3.5776508          10.6955525
C          -3.4469365          -2.6681275          10.3291009
C          -2.4901184          -3.5776508          10.6955525
C          -4.3365662          -0.4409857          10.7116602
C          -4.0056732          -1.7189698          11.0781118
C          4.3365662          0.4409857          10.7116602
C          4.0056732          1.7189698          11.0781118
C          3.9134676          -1.9196475          11.0942195
C          4.3086647          -0.6600631          11.4606711
C          -3.9134676          1.9196475          11.0942195
C          -4.3086647          0.6600631          11.4606711
C          -2.3057174          3.6991813          11.4767788
C          -3.3073740          2.8392874          11.8432304
C          2.3057174          -3.6991813          11.4767788
C          3.3073740          -2.8392874          11.8432304
C          0.0000000          -4.3589305          11.8593381
C          1.3049031          -4.1590267          12.2257897
C          -0.0000000          4.3589305          11.8593381
C          -1.3049031          4.1590267          12.2257897
C          2.3057173          3.6991814          12.2418974
C          1.0925769          4.2197809          12.6083490
C          -2.3057173          -3.6991814          12.2418974
C          -1.0925769          -4.2197809          12.6083490
C          -3.9134676          -1.9196475          12.6244567
C          -3.1593214          -3.0031590          12.9909083
C          3.9134676          1.9196476          12.6244567
C          3.1593214          3.0031590          12.9909083
C          4.3365663          -0.4409856          13.0070160
C          4.2697029          0.8774463          13.3734676
C          -4.3365663          0.4409856          13.0070160
C          -4.2697029          -0.8774463          13.3734676
C          -3.4469365          2.6681274          13.3895753
C          -4.0875964          1.5138794          13.7560269
C          3.4469365          -2.6681274          13.3895753
C          4.0875964          -1.5138794          13.7560269
C          1.5138795          -4.0875964          13.7721346
C          2.6681275          -3.4469365          14.1385862
C          -1.5138795          4.0875964          13.7721346
C          -2.6681275          3.4469365          14.1385862
C          0.8774462          4.2697030          14.1546939
C          -0.4409857          4.3365662          14.5211455
C          -0.8774462          -4.2697030          14.1546939
C          0.4409857          -4.3365662          14.5211455
C          -3.0031589          -3.1593214          14.5372531
C          -1.9196475          -3.9134676          14.9037048
C          3.0031589          3.1593214          14.5372531
C          1.9196475          3.9134676          14.9037048
C          4.2197809          1.0925770          14.9198124
C          3.6991813          2.3057174          15.2862641
C          -4.2197809          -1.0925770          14.9198124
C          -3.6991813          -2.3057174          15.2862641
C          -4.1590267          1.3049030          15.3023717
C          -4.3589305          -0.0000001          15.6688233
C          4.1590267          -1.3049030          15.3023717
C          4.3589305          0.0000001          15.6688233
C          2.8392874          -3.3073739          15.6849310
C          3.6991814          -2.3057173          16.0513826
C          -2.8392874          3.3073739          15.6849310
C          -3.6991814          2.3057173          16.0513826
C          -0.6600632          4.3086647          16.0674903
C          -1.9196476          3.9134676          16.4339419
C          0.6600632          -4.3086647          16.0674903
C          1.9196476          -3.9134676          16.4339419
C          -1.7189697          -4.0056733          16.4500496
C          -0.4409856          -4.3365663          16.8165012
C          1.7189697          4.0056733          16.4500496
C          0.4409856          4.3365663          16.8165012
C          3.5776508          2.4901185          16.8326089
C          2.6681274          3.4469365          17.1990605
C          -3.5776508          -2.4901185          16.8326089
C          -2.6681274          -3.4469365          17.1990605
C          -4.3533359          -0.2207763          17.2151682
C          -4.0875964          -1.5138795          17.5816198
C          4.3533359          0.2207763          17.2151682
C          4.0875964          1.5138795          17.5816198
C          3.8112162          -2.1153975          17.5977275
C          4.2697030          -0.8774462          17.9641791
C          -3.8112162          2.1153975          17.5977275
C          -4.2697030          0.8774462          17.9641791
C          -2.1153976          3.8112161          17.9802868
C          -3.1593214          3.0031589          18.3467384
C          2.1153976          -3.8112161          17.9802868
C          3.1593214          -3.0031589          18.3467384
C          -0.2207761          -4.3533359          18.3628461
C          1.0925770          -4.2197809          18.7292977
C          0.2207761          4.3533359          18.3628461
C          -1.0925770          4.2197809          18.7292977
C          2.4901184          3.5776508          18.7454054
C          1.3049030          4.1590267          19.1118570
C          -2.4901184          -3.5776509          18.7454054
C          -1.3049030          -4.1590267          19.1118570
C          -4.0056732          -1.7189698          19.1279647
C          -3.3073739          -2.8392874          19.4944163
C          4.0056732          1.7189698          19.1279647
C          3.3073739          2.8392874          19.4944163
C          4.3086648          -0.6600631          19.5105240
C          4.3086647          0.6600632          19.8769756
C          -4.3086648          0.6600631          19.5105240
C          -4.3086647          -0.6600632          19.8769756
C          -3.3073740          2.8392873          19.8930833
C          -4.0056733          1.7189697          20.2595349
C          3.3073740          -2.8392873          19.8930833
C          4.0056733          -1.7189697          20.2595349
C          1.3049031          -4.1590267          20.2756425
C          2.4901185          -3.5776508          20.6420942
C          -1.3049031          4.1590267          20.2756425
C          -2.4901185          3.5776508          20.6420942
C          1.0925769          4.2197809          20.6582018
C          -0.2207763          4.3533359          21.0246535
C          -1.0925769          -4.2197809          20.6582018
C          0.2207763          -4.3533359          21.0246535
C          -3.1593213          -3.0031590          21.0407611
C          -2.1153975          -3.8112162          21.4072127
C          3.1593213          3.0031590          21.0407611
C          2.1153975          3.8112162          21.4072127
C          4.2697029          0.8774463          21.4233204
C          3.8112161          2.1153976          21.7897720
C          -4.2697029          -0.8774463          21.4233204
C          -3.8112161          -2.1153976          21.7897720
C          -4.0875964          1.5138794          21.8058797
C          -4.3533359          0.2207761          22.1723313
C          4.0875964          -1.5138794          21.8058797
C          4.3533359          -0.2207761          22.1723313
C          2.6681275          -3.4469364          22.1884390
C          3.5776509          -2.4901184          22.5548906
C          -2.6681275          3.4469364          22.1884390
C          -3.5776509          2.4901184          22.5548906
C          -0.4409858          4.3365662          22.5709983
C          -1.7189698          4.0056732          22.9374499
C          0.4409858          -4.3365662          22.5709983
C          1.7189699          -4.0056732          22.9374499
C          -1.9196474          -3.9134676          22.9535576
C          -0.6600631          -4.3086648          23.3200092
C          1.9196474          3.9134676          22.9535576
C          0.6600631          4.3086648          23.3200092
C          3.6991813          2.3057174          23.3361169
C          2.8392873          3.3073740          23.7025685
C          -3.6991813          -2.3057174          23.3361169
C          -2.8392873          -3.3073740          23.7025685
